L24/1726531/GD.dss
! GERACAO DISTRIBUIDA — gerada de UGBT_tab e UGMT_tab
! Unidades com potencia nula sao omitidas (gerariam NaN).
! 25 unidades descartadas por potencia nula.
! 36 unidades de BT realocadas para o secundario do transformador (rede secundaria nao modelada).
! 0 unidades descartadas por ponto de conexao ausente da rede.
! irradiance=1 — ver o docstring: 1,0 e meio-dia de ceu claro, nao a ponta de carga.
! 1 barras tiveram a GD limitada a capacidade do transformador (5 kW cortados).
! inversores em pf=1 — ver o docstring de _pv: 0,92 e capacidade exigida pelo PRODIST, nao despacho.
! 0 unidades de MT ligadas pelo PAC da carga (casadas por CEG_GD): o PAC da UGMT nao existe na SSDMT.
New PVSystem.GD_b1024e51f96187a91dbcfdc0393247c37c537b6722a1629d4c2b17b2d0a86e3a phases=3 bus1=node_2196464620.1.2.3 conn=wye kv=13.8000 pf=1 pmpp=1743.65 kva=1743.65 irradiance=1 temperature=25 %cutin=20 %cutout=20 effcurve=MyEff P-TCurve=MyPvsT Daily=IRRAD_DIA TDaily=TEMP_DIA
New PVSystem.GD_7d0cb0038cf172c7a2256f98b90c0046d008a967c8383b18ac8859bed1e5c942 phases=3 bus1=node_1214108148.1.2.3 conn=wye kv=13.8000 pf=1 pmpp=372.20 kva=372.20 irradiance=1 temperature=25 %cutin=20 %cutout=20 effcurve=MyEff P-TCurve=MyPvsT Daily=IRRAD_DIA TDaily=TEMP_DIA
New PVSystem.GD_1afddf2fc8b1f032fa22f155b19d9be8bfc049939e9937cff24142f7669047a1 phases=3 bus1=node_1214108148.1.2.3 conn=wye kv=13.8000 pf=1 pmpp=801.41 kva=801.41 irradiance=1 temperature=25 %cutin=20 %cutout=20 effcurve=MyEff P-TCurve=MyPvsT Daily=IRRAD_DIA TDaily=TEMP_DIA
New PVSystem.GD_9afc307b3b54128bd2ce23c6fd633de9008e08251dae1454a958c19f6723db28 phases=3 bus1=node_1214108148.1.2.3 conn=wye kv=13.8000 pf=1 pmpp=801.41 kva=801.41 irradiance=1 temperature=25 %cutin=20 %cutout=20 effcurve=MyEff P-TCurve=MyPvsT Daily=IRRAD_DIA TDaily=TEMP_DIA
New PVSystem.GD_e574768c8a1cfe7fe7a5bd6ff1b79bbf05832f112bba7c942c0c463af1f4768b phases=3 bus1=node_426778050.1.2.3 conn=wye kv=13.8000 pf=1 pmpp=78.43 kva=78.43 irradiance=1 temperature=25 %cutin=20 %cutout=20 effcurve=MyEff P-TCurve=MyPvsT Daily=IRRAD_DIA TDaily=TEMP_DIA
New PVSystem.GD_5d0feafaf67374f09e4d27949bd872b44d0872936d89d97558b6b86a414ca1b0_1 phases=1 bus1=node_423471264.1.4 conn=wye kv=0.1200 pf=1 pmpp=2.05 kva=2.05 irradiance=1 temperature=25 %cutin=20 %cutout=20 effcurve=MyEff P-TCurve=MyPvsT Daily=IRRAD_DIA TDaily=TEMP_DIA
New PVSystem.GD_5d0feafaf67374f09e4d27949bd872b44d0872936d89d97558b6b86a414ca1b0_2 phases=1 bus1=node_423471264.2.4 conn=wye kv=0.1200 pf=1 pmpp=2.05 kva=2.05 irradiance=1 temperature=25 %cutin=20 %cutout=20 effcurve=MyEff P-TCurve=MyPvsT Daily=IRRAD_DIA TDaily=TEMP_DIA
New PVSystem.GD_34245193f933ac32cdd220de06505bff4ad2b1050a985600bb508744b909024f_1 phases=1 bus1=node_418165279.1.4 conn=wye kv=0.1270 pf=1 pmpp=1.23 kva=1.23 irradiance=1 temperature=25 %cutin=20 %cutout=20 effcurve=MyEff P-TCurve=MyPvsT Daily=IRRAD_DIA TDaily=TEMP_DIA
New PVSystem.GD_34245193f933ac32cdd220de06505bff4ad2b1050a985600bb508744b909024f_2 phases=1 bus1=node_418165279.2.4 conn=wye kv=0.1270 pf=1 pmpp=1.23 kva=1.23 irradiance=1 temperature=25 %cutin=20 %cutout=20 effcurve=MyEff P-TCurve=MyPvsT Daily=IRRAD_DIA TDaily=TEMP_DIA
New PVSystem.GD_34245193f933ac32cdd220de06505bff4ad2b1050a985600bb508744b909024f_3 phases=1 bus1=node_418165279.3.4 conn=wye kv=0.1270 pf=1 pmpp=1.23 kva=1.23 irradiance=1 temperature=25 %cutin=20 %cutout=20 effcurve=MyEff P-TCurve=MyPvsT Daily=IRRAD_DIA TDaily=TEMP_DIA
New PVSystem.GD_f05b30e6efd1a0d8e8fa9181457ea8e59acf3f37c560a66259cd1428b487ff23_1 phases=1 bus1=node_418165279.1.4 conn=wye kv=0.1270 pf=1 pmpp=0.64 kva=0.64 irradiance=1 temperature=25 %cutin=20 %cutout=20 effcurve=MyEff P-TCurve=MyPvsT Daily=IRRAD_DIA TDaily=TEMP_DIA
New PVSystem.GD_f05b30e6efd1a0d8e8fa9181457ea8e59acf3f37c560a66259cd1428b487ff23_2 phases=1 bus1=node_418165279.2.4 conn=wye kv=0.1270 pf=1 pmpp=0.64 kva=0.64 irradiance=1 temperature=25 %cutin=20 %cutout=20 effcurve=MyEff P-TCurve=MyPvsT Daily=IRRAD_DIA TDaily=TEMP_DIA
New PVSystem.GD_f05b30e6efd1a0d8e8fa9181457ea8e59acf3f37c560a66259cd1428b487ff23_3 phases=1 bus1=node_418165279.3.4 conn=wye kv=0.1270 pf=1 pmpp=0.64 kva=0.64 irradiance=1 temperature=25 %cutin=20 %cutout=20 effcurve=MyEff P-TCurve=MyPvsT Daily=IRRAD_DIA TDaily=TEMP_DIA
New PVSystem.GD_c09a2ebcba0e110d7cae041fc94e3ef7d621496a28191734506454a03bb2f715_1 phases=1 bus1=node_418165279.1.4 conn=wye kv=0.1270 pf=1 pmpp=1.23 kva=1.23 irradiance=1 temperature=25 %cutin=20 %cutout=20 effcurve=MyEff P-TCurve=MyPvsT Daily=IRRAD_DIA TDaily=TEMP_DIA
New PVSystem.GD_c09a2ebcba0e110d7cae041fc94e3ef7d621496a28191734506454a03bb2f715_2 phases=1 bus1=node_418165279.2.4 conn=wye kv=0.1270 pf=1 pmpp=1.23 kva=1.23 irradiance=1 temperature=25 %cutin=20 %cutout=20 effcurve=MyEff P-TCurve=MyPvsT Daily=IRRAD_DIA TDaily=TEMP_DIA
New PVSystem.GD_c09a2ebcba0e110d7cae041fc94e3ef7d621496a28191734506454a03bb2f715_3 phases=1 bus1=node_418165279.3.4 conn=wye kv=0.1270 pf=1 pmpp=1.23 kva=1.23 irradiance=1 temperature=25 %cutin=20 %cutout=20 effcurve=MyEff P-TCurve=MyPvsT Daily=IRRAD_DIA TDaily=TEMP_DIA
New PVSystem.GD_899bc1ea09709265ae5e9300bf5f97a41f254f379fb15b25442246f98ee0fd75_1 phases=1 bus1=node_418180494.1.4 conn=wye kv=0.1270 pf=1 pmpp=0.80 kva=0.80 irradiance=1 temperature=25 %cutin=20 %cutout=20 effcurve=MyEff P-TCurve=MyPvsT Daily=IRRAD_DIA TDaily=TEMP_DIA
New PVSystem.GD_899bc1ea09709265ae5e9300bf5f97a41f254f379fb15b25442246f98ee0fd75_2 phases=1 bus1=node_418180494.2.4 conn=wye kv=0.1270 pf=1 pmpp=0.80 kva=0.80 irradiance=1 temperature=25 %cutin=20 %cutout=20 effcurve=MyEff P-TCurve=MyPvsT Daily=IRRAD_DIA TDaily=TEMP_DIA
New PVSystem.GD_899bc1ea09709265ae5e9300bf5f97a41f254f379fb15b25442246f98ee0fd75_3 phases=1 bus1=node_418180494.3.4 conn=wye kv=0.1270 pf=1 pmpp=0.80 kva=0.80 irradiance=1 temperature=25 %cutin=20 %cutout=20 effcurve=MyEff P-TCurve=MyPvsT Daily=IRRAD_DIA TDaily=TEMP_DIA
New PVSystem.GD_909277c999e4dd41843d292265318177e75b029367b62f12f7d6c3c252df15f8_1 phases=1 bus1=node_418163611.1.4 conn=wye kv=0.1270 pf=1 pmpp=0.53 kva=0.53 irradiance=1 temperature=25 %cutin=20 %cutout=20 effcurve=MyEff P-TCurve=MyPvsT Daily=IRRAD_DIA TDaily=TEMP_DIA
New PVSystem.GD_909277c999e4dd41843d292265318177e75b029367b62f12f7d6c3c252df15f8_2 phases=1 bus1=node_418163611.2.4 conn=wye kv=0.1270 pf=1 pmpp=0.53 kva=0.53 irradiance=1 temperature=25 %cutin=20 %cutout=20 effcurve=MyEff P-TCurve=MyPvsT Daily=IRRAD_DIA TDaily=TEMP_DIA
New PVSystem.GD_909277c999e4dd41843d292265318177e75b029367b62f12f7d6c3c252df15f8_3 phases=1 bus1=node_418163611.3.4 conn=wye kv=0.1270 pf=1 pmpp=0.53 kva=0.53 irradiance=1 temperature=25 %cutin=20 %cutout=20 effcurve=MyEff P-TCurve=MyPvsT Daily=IRRAD_DIA TDaily=TEMP_DIA
New PVSystem.GD_02b1489ee79d6d91c33461b5a9e27c47fc62e85556eda31d60671c90764351c6_1 phases=1 bus1=node_418394541.1.4 conn=wye kv=0.1200 pf=1 pmpp=2.50 kva=2.50 irradiance=1 temperature=25 %cutin=20 %cutout=20 effcurve=MyEff P-TCurve=MyPvsT Daily=IRRAD_DIA TDaily=TEMP_DIA
New PVSystem.GD_02b1489ee79d6d91c33461b5a9e27c47fc62e85556eda31d60671c90764351c6_2 phases=1 bus1=node_418394541.2.4 conn=wye kv=0.1200 pf=1 pmpp=2.50 kva=2.50 irradiance=1 temperature=25 %cutin=20 %cutout=20 effcurve=MyEff P-TCurve=MyPvsT Daily=IRRAD_DIA TDaily=TEMP_DIA
New PVSystem.GD_b8915bd37c6d4b17579c5fe7af50bedf1fdd9a1452232a4f11cfca310560c299_1 phases=1 bus1=node_418398111.1.4 conn=wye kv=0.1270 pf=1 pmpp=10.74 kva=10.74 irradiance=1 temperature=25 %cutin=20 %cutout=20 effcurve=MyEff P-TCurve=MyPvsT Daily=IRRAD_DIA TDaily=TEMP_DIA
New PVSystem.GD_b8915bd37c6d4b17579c5fe7af50bedf1fdd9a1452232a4f11cfca310560c299_2 phases=1 bus1=node_418398111.2.4 conn=wye kv=0.1270 pf=1 pmpp=10.74 kva=10.74 irradiance=1 temperature=25 %cutin=20 %cutout=20 effcurve=MyEff P-TCurve=MyPvsT Daily=IRRAD_DIA TDaily=TEMP_DIA
New PVSystem.GD_b8915bd37c6d4b17579c5fe7af50bedf1fdd9a1452232a4f11cfca310560c299_3 phases=1 bus1=node_418398111.3.4 conn=wye kv=0.1270 pf=1 pmpp=10.74 kva=10.74 irradiance=1 temperature=25 %cutin=20 %cutout=20 effcurve=MyEff P-TCurve=MyPvsT Daily=IRRAD_DIA TDaily=TEMP_DIA
New PVSystem.GD_758a1cf240c6ebc5be533061f2e6e75f92f2081c0b5a7603858efcc6b5a57801_1 phases=1 bus1=node_418155765.1.4 conn=wye kv=0.1270 pf=1 pmpp=3.45 kva=3.45 irradiance=1 temperature=25 %cutin=20 %cutout=20 effcurve=MyEff P-TCurve=MyPvsT Daily=IRRAD_DIA TDaily=TEMP_DIA
New PVSystem.GD_758a1cf240c6ebc5be533061f2e6e75f92f2081c0b5a7603858efcc6b5a57801_2 phases=1 bus1=node_418155765.2.4 conn=wye kv=0.1270 pf=1 pmpp=3.45 kva=3.45 irradiance=1 temperature=25 %cutin=20 %cutout=20 effcurve=MyEff P-TCurve=MyPvsT Daily=IRRAD_DIA TDaily=TEMP_DIA
New PVSystem.GD_758a1cf240c6ebc5be533061f2e6e75f92f2081c0b5a7603858efcc6b5a57801_3 phases=1 bus1=node_418155765.3.4 conn=wye kv=0.1270 pf=1 pmpp=3.45 kva=3.45 irradiance=1 temperature=25 %cutin=20 %cutout=20 effcurve=MyEff P-TCurve=MyPvsT Daily=IRRAD_DIA TDaily=TEMP_DIA
New PVSystem.GD_49380a8493a971e9f0e53f068c791d0415e82bab0c6d867a7821828942d5ca6c_1 phases=1 bus1=node_418155672.1.4 conn=wye kv=0.1200 pf=1 pmpp=2.59 kva=2.59 irradiance=1 temperature=25 %cutin=20 %cutout=20 effcurve=MyEff P-TCurve=MyPvsT Daily=IRRAD_DIA TDaily=TEMP_DIA
New PVSystem.GD_49380a8493a971e9f0e53f068c791d0415e82bab0c6d867a7821828942d5ca6c_2 phases=1 bus1=node_418155672.2.4 conn=wye kv=0.1200 pf=1 pmpp=2.59 kva=2.59 irradiance=1 temperature=25 %cutin=20 %cutout=20 effcurve=MyEff P-TCurve=MyPvsT Daily=IRRAD_DIA TDaily=TEMP_DIA
New PVSystem.GD_d55c2f4a08cf85fa75631480619149170ffe95db61d2ca2cb31ec07560afac17_1 phases=1 bus1=node_418155021.1.4 conn=wye kv=0.1200 pf=1 pmpp=6.96 kva=6.96 irradiance=1 temperature=25 %cutin=20 %cutout=20 effcurve=MyEff P-TCurve=MyPvsT Daily=IRRAD_DIA TDaily=TEMP_DIA
New PVSystem.GD_d55c2f4a08cf85fa75631480619149170ffe95db61d2ca2cb31ec07560afac17_2 phases=1 bus1=node_418155021.2.4 conn=wye kv=0.1200 pf=1 pmpp=6.96 kva=6.96 irradiance=1 temperature=25 %cutin=20 %cutout=20 effcurve=MyEff P-TCurve=MyPvsT Daily=IRRAD_DIA TDaily=TEMP_DIA
New PVSystem.GD_f7dc057c28d47b9a313c7d5f420c10972bf4d1f8d298c596ec0cb0f89d99f54b_1 phases=1 bus1=node_1785247816.1.4 conn=wye kv=0.1270 pf=1 pmpp=10.31 kva=10.31 irradiance=1 temperature=25 %cutin=20 %cutout=20 effcurve=MyEff P-TCurve=MyPvsT Daily=IRRAD_DIA TDaily=TEMP_DIA
New PVSystem.GD_f7dc057c28d47b9a313c7d5f420c10972bf4d1f8d298c596ec0cb0f89d99f54b_2 phases=1 bus1=node_1785247816.2.4 conn=wye kv=0.1270 pf=1 pmpp=10.31 kva=10.31 irradiance=1 temperature=25 %cutin=20 %cutout=20 effcurve=MyEff P-TCurve=MyPvsT Daily=IRRAD_DIA TDaily=TEMP_DIA
New PVSystem.GD_f7dc057c28d47b9a313c7d5f420c10972bf4d1f8d298c596ec0cb0f89d99f54b_3 phases=1 bus1=node_1785247816.3.4 conn=wye kv=0.1270 pf=1 pmpp=10.31 kva=10.31 irradiance=1 temperature=25 %cutin=20 %cutout=20 effcurve=MyEff P-TCurve=MyPvsT Daily=IRRAD_DIA TDaily=TEMP_DIA
New PVSystem.GD_4dea9469aee0fa9354fc1eb466f88a6b8aaf2b47cc520106a452aec0546c7e9f_1 phases=1 bus1=node_419188377.1.4 conn=wye kv=0.1200 pf=1 pmpp=0.42 kva=0.42 irradiance=1 temperature=25 %cutin=20 %cutout=20 effcurve=MyEff P-TCurve=MyPvsT Daily=IRRAD_DIA TDaily=TEMP_DIA
New PVSystem.GD_4dea9469aee0fa9354fc1eb466f88a6b8aaf2b47cc520106a452aec0546c7e9f_2 phases=1 bus1=node_419188377.2.4 conn=wye kv=0.1200 pf=1 pmpp=0.42 kva=0.42 irradiance=1 temperature=25 %cutin=20 %cutout=20 effcurve=MyEff P-TCurve=MyPvsT Daily=IRRAD_DIA TDaily=TEMP_DIA
New PVSystem.GD_688d0cf72c5b5664c912fb553b9b793e6275bc139ee96f0a13b5309f42ee9f8d_1 phases=1 bus1=node_418154142.1.4 conn=wye kv=0.1200 pf=1 pmpp=0.77 kva=0.77 irradiance=1 temperature=25 %cutin=20 %cutout=20 effcurve=MyEff P-TCurve=MyPvsT Daily=IRRAD_DIA TDaily=TEMP_DIA
New PVSystem.GD_688d0cf72c5b5664c912fb553b9b793e6275bc139ee96f0a13b5309f42ee9f8d_2 phases=1 bus1=node_418154142.2.4 conn=wye kv=0.1200 pf=1 pmpp=0.77 kva=0.77 irradiance=1 temperature=25 %cutin=20 %cutout=20 effcurve=MyEff P-TCurve=MyPvsT Daily=IRRAD_DIA TDaily=TEMP_DIA
New PVSystem.GD_c09ae3770127f42b17681979b819222ae4cbe55073af71b5344a06062c600f36_1 phases=1 bus1=node_414020530.1.4 conn=wye kv=0.1200 pf=1 pmpp=2.16 kva=2.16 irradiance=1 temperature=25 %cutin=20 %cutout=20 effcurve=MyEff P-TCurve=MyPvsT Daily=IRRAD_DIA TDaily=TEMP_DIA
New PVSystem.GD_c09ae3770127f42b17681979b819222ae4cbe55073af71b5344a06062c600f36_2 phases=1 bus1=node_414020530.2.4 conn=wye kv=0.1200 pf=1 pmpp=2.16 kva=2.16 irradiance=1 temperature=25 %cutin=20 %cutout=20 effcurve=MyEff P-TCurve=MyPvsT Daily=IRRAD_DIA TDaily=TEMP_DIA
New PVSystem.GD_1ac2771c695dc108b12d825cfdbf4248d764ccc00501c92ce8272e26b40a9d27_1 phases=1 bus1=node_414020326.1.4 conn=wye kv=0.1200 pf=1 pmpp=2.25 kva=2.25 irradiance=1 temperature=25 %cutin=20 %cutout=20 effcurve=MyEff P-TCurve=MyPvsT Daily=IRRAD_DIA TDaily=TEMP_DIA
New PVSystem.GD_1ac2771c695dc108b12d825cfdbf4248d764ccc00501c92ce8272e26b40a9d27_2 phases=1 bus1=node_414020326.2.4 conn=wye kv=0.1200 pf=1 pmpp=2.25 kva=2.25 irradiance=1 temperature=25 %cutin=20 %cutout=20 effcurve=MyEff P-TCurve=MyPvsT Daily=IRRAD_DIA TDaily=TEMP_DIA
New PVSystem.GD_92e768b069e47b4545f0624a90adf5f0f0eb9fd19e42c574c26b035d1d832ff4_1 phases=1 bus1=node_418519146.1.4 conn=wye kv=0.1200 pf=1 pmpp=1.47 kva=1.47 irradiance=1 temperature=25 %cutin=20 %cutout=20 effcurve=MyEff P-TCurve=MyPvsT Daily=IRRAD_DIA TDaily=TEMP_DIA
New PVSystem.GD_92e768b069e47b4545f0624a90adf5f0f0eb9fd19e42c574c26b035d1d832ff4_2 phases=1 bus1=node_418519146.2.4 conn=wye kv=0.1200 pf=1 pmpp=1.47 kva=1.47 irradiance=1 temperature=25 %cutin=20 %cutout=20 effcurve=MyEff P-TCurve=MyPvsT Daily=IRRAD_DIA TDaily=TEMP_DIA
New PVSystem.GD_ec31c650bd5e97f73b3f22bb8ba93d66742d1a11766050ba3f08a8fa8730f83b_1 phases=1 bus1=node_418163098.1.4 conn=wye kv=0.1200 pf=1 pmpp=1.55 kva=1.55 irradiance=1 temperature=25 %cutin=20 %cutout=20 effcurve=MyEff P-TCurve=MyPvsT Daily=IRRAD_DIA TDaily=TEMP_DIA
New PVSystem.GD_ec31c650bd5e97f73b3f22bb8ba93d66742d1a11766050ba3f08a8fa8730f83b_2 phases=1 bus1=node_418163098.2.4 conn=wye kv=0.1200 pf=1 pmpp=1.55 kva=1.55 irradiance=1 temperature=25 %cutin=20 %cutout=20 effcurve=MyEff P-TCurve=MyPvsT Daily=IRRAD_DIA TDaily=TEMP_DIA
New PVSystem.GD_8d28898b3b033b1d1f9609b9cea6d159656da51909d92182cef33c6a096767d7_1 phases=1 bus1=node_419118154.1.4 conn=wye kv=0.1200 pf=1 pmpp=0.58 kva=0.58 irradiance=1 temperature=25 %cutin=20 %cutout=20 effcurve=MyEff P-TCurve=MyPvsT Daily=IRRAD_DIA TDaily=TEMP_DIA
New PVSystem.GD_8d28898b3b033b1d1f9609b9cea6d159656da51909d92182cef33c6a096767d7_2 phases=1 bus1=node_419118154.2.4 conn=wye kv=0.1200 pf=1 pmpp=0.58 kva=0.58 irradiance=1 temperature=25 %cutin=20 %cutout=20 effcurve=MyEff P-TCurve=MyPvsT Daily=IRRAD_DIA TDaily=TEMP_DIA
New PVSystem.GD_f1757dc2f8f3053481e789722ecb685a8d95f8057602645bae0d9f83d7b77b87_1 phases=1 bus1=node_418074598.1.4 conn=wye kv=0.1270 pf=1 pmpp=0.40 kva=0.40 irradiance=1 temperature=25 %cutin=20 %cutout=20 effcurve=MyEff P-TCurve=MyPvsT Daily=IRRAD_DIA TDaily=TEMP_DIA
New PVSystem.GD_f1757dc2f8f3053481e789722ecb685a8d95f8057602645bae0d9f83d7b77b87_2 phases=1 bus1=node_418074598.2.4 conn=wye kv=0.1270 pf=1 pmpp=0.40 kva=0.40 irradiance=1 temperature=25 %cutin=20 %cutout=20 effcurve=MyEff P-TCurve=MyPvsT Daily=IRRAD_DIA TDaily=TEMP_DIA
New PVSystem.GD_f1757dc2f8f3053481e789722ecb685a8d95f8057602645bae0d9f83d7b77b87_3 phases=1 bus1=node_418074598.3.4 conn=wye kv=0.1270 pf=1 pmpp=0.40 kva=0.40 irradiance=1 temperature=25 %cutin=20 %cutout=20 effcurve=MyEff P-TCurve=MyPvsT Daily=IRRAD_DIA TDaily=TEMP_DIA
New PVSystem.GD_96b2956766a76ca9a099647b6640c813c919f493edd9678460ffb5a1129dfa6a_1 phases=1 bus1=node_418074598.1.4 conn=wye kv=0.1270 pf=1 pmpp=1.53 kva=1.53 irradiance=1 temperature=25 %cutin=20 %cutout=20 effcurve=MyEff P-TCurve=MyPvsT Daily=IRRAD_DIA TDaily=TEMP_DIA
New PVSystem.GD_96b2956766a76ca9a099647b6640c813c919f493edd9678460ffb5a1129dfa6a_2 phases=1 bus1=node_418074598.2.4 conn=wye kv=0.1270 pf=1 pmpp=1.53 kva=1.53 irradiance=1 temperature=25 %cutin=20 %cutout=20 effcurve=MyEff P-TCurve=MyPvsT Daily=IRRAD_DIA TDaily=TEMP_DIA
New PVSystem.GD_96b2956766a76ca9a099647b6640c813c919f493edd9678460ffb5a1129dfa6a_3 phases=1 bus1=node_418074598.3.4 conn=wye kv=0.1270 pf=1 pmpp=1.53 kva=1.53 irradiance=1 temperature=25 %cutin=20 %cutout=20 effcurve=MyEff P-TCurve=MyPvsT Daily=IRRAD_DIA TDaily=TEMP_DIA
New PVSystem.GD_898db24c35e1614632030d76d12c83ed54084f01b90ae71f31c3972476fb248f_1 phases=1 bus1=node_414044417.1.4 conn=wye kv=0.1270 pf=1 pmpp=1.23 kva=1.23 irradiance=1 temperature=25 %cutin=20 %cutout=20 effcurve=MyEff P-TCurve=MyPvsT Daily=IRRAD_DIA TDaily=TEMP_DIA
New PVSystem.GD_898db24c35e1614632030d76d12c83ed54084f01b90ae71f31c3972476fb248f_2 phases=1 bus1=node_414044417.2.4 conn=wye kv=0.1270 pf=1 pmpp=1.23 kva=1.23 irradiance=1 temperature=25 %cutin=20 %cutout=20 effcurve=MyEff P-TCurve=MyPvsT Daily=IRRAD_DIA TDaily=TEMP_DIA
New PVSystem.GD_898db24c35e1614632030d76d12c83ed54084f01b90ae71f31c3972476fb248f_3 phases=1 bus1=node_414044417.3.4 conn=wye kv=0.1270 pf=1 pmpp=1.23 kva=1.23 irradiance=1 temperature=25 %cutin=20 %cutout=20 effcurve=MyEff P-TCurve=MyPvsT Daily=IRRAD_DIA TDaily=TEMP_DIA
New PVSystem.GD_b1572968933f673e4a45e4e626f443ab9a6d54dc35fddff6b13b8765cfb326b3_1 phases=1 bus1=node_414044417.1.4 conn=wye kv=0.1270 pf=1 pmpp=0.57 kva=0.57 irradiance=1 temperature=25 %cutin=20 %cutout=20 effcurve=MyEff P-TCurve=MyPvsT Daily=IRRAD_DIA TDaily=TEMP_DIA
New PVSystem.GD_b1572968933f673e4a45e4e626f443ab9a6d54dc35fddff6b13b8765cfb326b3_2 phases=1 bus1=node_414044417.2.4 conn=wye kv=0.1270 pf=1 pmpp=0.57 kva=0.57 irradiance=1 temperature=25 %cutin=20 %cutout=20 effcurve=MyEff P-TCurve=MyPvsT Daily=IRRAD_DIA TDaily=TEMP_DIA
New PVSystem.GD_b1572968933f673e4a45e4e626f443ab9a6d54dc35fddff6b13b8765cfb326b3_3 phases=1 bus1=node_414044417.3.4 conn=wye kv=0.1270 pf=1 pmpp=0.57 kva=0.57 irradiance=1 temperature=25 %cutin=20 %cutout=20 effcurve=MyEff P-TCurve=MyPvsT Daily=IRRAD_DIA TDaily=TEMP_DIA
New PVSystem.GD_23a5349a4e04d9d40316c23d2e0fcd26f29db50ba8ed79cc20ea0560e2af021d_1 phases=1 bus1=node_414044366.1.4 conn=wye kv=0.1270 pf=1 pmpp=0.21 kva=0.21 irradiance=1 temperature=25 %cutin=20 %cutout=20 effcurve=MyEff P-TCurve=MyPvsT Daily=IRRAD_DIA TDaily=TEMP_DIA
New PVSystem.GD_23a5349a4e04d9d40316c23d2e0fcd26f29db50ba8ed79cc20ea0560e2af021d_2 phases=1 bus1=node_414044366.2.4 conn=wye kv=0.1270 pf=1 pmpp=0.21 kva=0.21 irradiance=1 temperature=25 %cutin=20 %cutout=20 effcurve=MyEff P-TCurve=MyPvsT Daily=IRRAD_DIA TDaily=TEMP_DIA
New PVSystem.GD_23a5349a4e04d9d40316c23d2e0fcd26f29db50ba8ed79cc20ea0560e2af021d_3 phases=1 bus1=node_414044366.3.4 conn=wye kv=0.1270 pf=1 pmpp=0.21 kva=0.21 irradiance=1 temperature=25 %cutin=20 %cutout=20 effcurve=MyEff P-TCurve=MyPvsT Daily=IRRAD_DIA TDaily=TEMP_DIA
New PVSystem.GD_b9bddf6d5a816671101b87fa4464cf0df67cabee419f2df3a93853353cd35dc2_1 phases=1 bus1=node_414044366.1.4 conn=wye kv=0.1270 pf=1 pmpp=2.78 kva=2.78 irradiance=1 temperature=25 %cutin=20 %cutout=20 effcurve=MyEff P-TCurve=MyPvsT Daily=IRRAD_DIA TDaily=TEMP_DIA
New PVSystem.GD_b9bddf6d5a816671101b87fa4464cf0df67cabee419f2df3a93853353cd35dc2_2 phases=1 bus1=node_414044366.2.4 conn=wye kv=0.1270 pf=1 pmpp=2.78 kva=2.78 irradiance=1 temperature=25 %cutin=20 %cutout=20 effcurve=MyEff P-TCurve=MyPvsT Daily=IRRAD_DIA TDaily=TEMP_DIA
New PVSystem.GD_b9bddf6d5a816671101b87fa4464cf0df67cabee419f2df3a93853353cd35dc2_3 phases=1 bus1=node_414044366.3.4 conn=wye kv=0.1270 pf=1 pmpp=2.78 kva=2.78 irradiance=1 temperature=25 %cutin=20 %cutout=20 effcurve=MyEff P-TCurve=MyPvsT Daily=IRRAD_DIA TDaily=TEMP_DIA
New PVSystem.GD_8bc7863598f763f36afec44c73bbb0d2b9f3b578ab1b2d225867914182129d83_1 phases=1 bus1=node_415614841.1.4 conn=wye kv=0.1200 pf=1 pmpp=0.96 kva=0.96 irradiance=1 temperature=25 %cutin=20 %cutout=20 effcurve=MyEff P-TCurve=MyPvsT Daily=IRRAD_DIA TDaily=TEMP_DIA
New PVSystem.GD_8bc7863598f763f36afec44c73bbb0d2b9f3b578ab1b2d225867914182129d83_2 phases=1 bus1=node_415614841.2.4 conn=wye kv=0.1200 pf=1 pmpp=0.96 kva=0.96 irradiance=1 temperature=25 %cutin=20 %cutout=20 effcurve=MyEff P-TCurve=MyPvsT Daily=IRRAD_DIA TDaily=TEMP_DIA
New PVSystem.GD_9b947de67521543a391199637b165b0f4dc475b549bbd24331a178bd7c6838b6_1 phases=1 bus1=node_419481612.1.4 conn=wye kv=0.1200 pf=1 pmpp=2.57 kva=2.57 irradiance=1 temperature=25 %cutin=20 %cutout=20 effcurve=MyEff P-TCurve=MyPvsT Daily=IRRAD_DIA TDaily=TEMP_DIA
New PVSystem.GD_9b947de67521543a391199637b165b0f4dc475b549bbd24331a178bd7c6838b6_2 phases=1 bus1=node_419481612.2.4 conn=wye kv=0.1200 pf=1 pmpp=2.57 kva=2.57 irradiance=1 temperature=25 %cutin=20 %cutout=20 effcurve=MyEff P-TCurve=MyPvsT Daily=IRRAD_DIA TDaily=TEMP_DIA
New PVSystem.GD_bfadfec68b6bc41d3ee0685ea0b34b7fe0002ca86463cd61a8c28bb3d4115fa3_1 phases=1 bus1=node_415709468.1.4 conn=wye kv=0.1200 pf=1 pmpp=6.48 kva=6.48 irradiance=1 temperature=25 %cutin=20 %cutout=20 effcurve=MyEff P-TCurve=MyPvsT Daily=IRRAD_DIA TDaily=TEMP_DIA
New PVSystem.GD_bfadfec68b6bc41d3ee0685ea0b34b7fe0002ca86463cd61a8c28bb3d4115fa3_2 phases=1 bus1=node_415709468.2.4 conn=wye kv=0.1200 pf=1 pmpp=6.48 kva=6.48 irradiance=1 temperature=25 %cutin=20 %cutout=20 effcurve=MyEff P-TCurve=MyPvsT Daily=IRRAD_DIA TDaily=TEMP_DIA
New PVSystem.GD_1e591eaa0c75d451c6f4f195e407cf3a4dc783287568834365af6da3e55cd57f_1 phases=1 bus1=node_415907127.1.4 conn=wye kv=0.1200 pf=1 pmpp=1.91 kva=1.91 irradiance=1 temperature=25 %cutin=20 %cutout=20 effcurve=MyEff P-TCurve=MyPvsT Daily=IRRAD_DIA TDaily=TEMP_DIA
New PVSystem.GD_1e591eaa0c75d451c6f4f195e407cf3a4dc783287568834365af6da3e55cd57f_2 phases=1 bus1=node_415907127.2.4 conn=wye kv=0.1200 pf=1 pmpp=1.91 kva=1.91 irradiance=1 temperature=25 %cutin=20 %cutout=20 effcurve=MyEff P-TCurve=MyPvsT Daily=IRRAD_DIA TDaily=TEMP_DIA
New PVSystem.GD_cd03a3eb99aba3a2cfb7694b498afe86d323f2dd551f1765542eaa11c5431076_1 phases=1 bus1=node_419862016.1.4 conn=wye kv=0.1200 pf=1 pmpp=9.54 kva=9.54 irradiance=1 temperature=25 %cutin=20 %cutout=20 effcurve=MyEff P-TCurve=MyPvsT Daily=IRRAD_DIA TDaily=TEMP_DIA
New PVSystem.GD_cd03a3eb99aba3a2cfb7694b498afe86d323f2dd551f1765542eaa11c5431076_2 phases=1 bus1=node_419862016.2.4 conn=wye kv=0.1200 pf=1 pmpp=9.54 kva=9.54 irradiance=1 temperature=25 %cutin=20 %cutout=20 effcurve=MyEff P-TCurve=MyPvsT Daily=IRRAD_DIA TDaily=TEMP_DIA
New PVSystem.GD_e5da55e8127003d7e9b88c8509f52d6f9b6c6c3ffec45ce7ce76d40d6368753e_1 phases=1 bus1=node_460302596.1.4 conn=wye kv=0.1270 pf=1 pmpp=0.42 kva=0.42 irradiance=1 temperature=25 %cutin=20 %cutout=20 effcurve=MyEff P-TCurve=MyPvsT Daily=IRRAD_DIA TDaily=TEMP_DIA
New PVSystem.GD_e5da55e8127003d7e9b88c8509f52d6f9b6c6c3ffec45ce7ce76d40d6368753e_2 phases=1 bus1=node_460302596.2.4 conn=wye kv=0.1270 pf=1 pmpp=0.42 kva=0.42 irradiance=1 temperature=25 %cutin=20 %cutout=20 effcurve=MyEff P-TCurve=MyPvsT Daily=IRRAD_DIA TDaily=TEMP_DIA
New PVSystem.GD_e5da55e8127003d7e9b88c8509f52d6f9b6c6c3ffec45ce7ce76d40d6368753e_3 phases=1 bus1=node_460302596.3.4 conn=wye kv=0.1270 pf=1 pmpp=0.42 kva=0.42 irradiance=1 temperature=25 %cutin=20 %cutout=20 effcurve=MyEff P-TCurve=MyPvsT Daily=IRRAD_DIA TDaily=TEMP_DIA
New PVSystem.GD_fd9ae5f4b7c1ab9f8ff4e04d1148afbc342c344a7d2fcea855a6b13f4ae12153_1 phases=1 bus1=node_1595053885.1.4 conn=wye kv=0.1200 pf=1 pmpp=2.53 kva=2.53 irradiance=1 temperature=25 %cutin=20 %cutout=20 effcurve=MyEff P-TCurve=MyPvsT Daily=IRRAD_DIA TDaily=TEMP_DIA
New PVSystem.GD_fd9ae5f4b7c1ab9f8ff4e04d1148afbc342c344a7d2fcea855a6b13f4ae12153_2 phases=1 bus1=node_1595053885.2.4 conn=wye kv=0.1200 pf=1 pmpp=2.53 kva=2.53 irradiance=1 temperature=25 %cutin=20 %cutout=20 effcurve=MyEff P-TCurve=MyPvsT Daily=IRRAD_DIA TDaily=TEMP_DIA
New PVSystem.GD_7abf0ae200fd9a518fa8a7087175e2f17088852eefb2efe379e1ccf84042a756_1 phases=1 bus1=node_1963238484.1.4 conn=wye kv=0.1270 pf=1 pmpp=2.86 kva=2.86 irradiance=1 temperature=25 %cutin=20 %cutout=20 effcurve=MyEff P-TCurve=MyPvsT Daily=IRRAD_DIA TDaily=TEMP_DIA
New PVSystem.GD_7abf0ae200fd9a518fa8a7087175e2f17088852eefb2efe379e1ccf84042a756_2 phases=1 bus1=node_1963238484.2.4 conn=wye kv=0.1270 pf=1 pmpp=2.86 kva=2.86 irradiance=1 temperature=25 %cutin=20 %cutout=20 effcurve=MyEff P-TCurve=MyPvsT Daily=IRRAD_DIA TDaily=TEMP_DIA
New PVSystem.GD_7abf0ae200fd9a518fa8a7087175e2f17088852eefb2efe379e1ccf84042a756_3 phases=1 bus1=node_1963238484.3.4 conn=wye kv=0.1270 pf=1 pmpp=2.86 kva=2.86 irradiance=1 temperature=25 %cutin=20 %cutout=20 effcurve=MyEff P-TCurve=MyPvsT Daily=IRRAD_DIA TDaily=TEMP_DIA
New PVSystem.GD_73a42a67112dce22edf551915bf9b317a5a8fd885339bcd0ef757c4c70cb9931_1 phases=1 bus1=node_1965192880.1.4 conn=wye kv=0.1270 pf=1 pmpp=24.91 kva=24.91 irradiance=1 temperature=25 %cutin=20 %cutout=20 effcurve=MyEff P-TCurve=MyPvsT Daily=IRRAD_DIA TDaily=TEMP_DIA
New PVSystem.GD_73a42a67112dce22edf551915bf9b317a5a8fd885339bcd0ef757c4c70cb9931_2 phases=1 bus1=node_1965192880.2.4 conn=wye kv=0.1270 pf=1 pmpp=24.91 kva=24.91 irradiance=1 temperature=25 %cutin=20 %cutout=20 effcurve=MyEff P-TCurve=MyPvsT Daily=IRRAD_DIA TDaily=TEMP_DIA
New PVSystem.GD_73a42a67112dce22edf551915bf9b317a5a8fd885339bcd0ef757c4c70cb9931_3 phases=1 bus1=node_1965192880.3.4 conn=wye kv=0.1270 pf=1 pmpp=24.91 kva=24.91 irradiance=1 temperature=25 %cutin=20 %cutout=20 effcurve=MyEff P-TCurve=MyPvsT Daily=IRRAD_DIA TDaily=TEMP_DIA
New PVSystem.GD_cb0b2c1c9a07df7b75250635dfb42b133049af58edca03165a8d71b5fe25d4fe_1 phases=1 bus1=node_418156278.1.4 conn=wye kv=0.1270 pf=1 pmpp=0.47 kva=0.47 irradiance=1 temperature=25 %cutin=20 %cutout=20 effcurve=MyEff P-TCurve=MyPvsT Daily=IRRAD_DIA TDaily=TEMP_DIA
New PVSystem.GD_cb0b2c1c9a07df7b75250635dfb42b133049af58edca03165a8d71b5fe25d4fe_2 phases=1 bus1=node_418156278.2.4 conn=wye kv=0.1270 pf=1 pmpp=0.47 kva=0.47 irradiance=1 temperature=25 %cutin=20 %cutout=20 effcurve=MyEff P-TCurve=MyPvsT Daily=IRRAD_DIA TDaily=TEMP_DIA
New PVSystem.GD_cb0b2c1c9a07df7b75250635dfb42b133049af58edca03165a8d71b5fe25d4fe_3 phases=1 bus1=node_418156278.3.4 conn=wye kv=0.1270 pf=1 pmpp=0.47 kva=0.47 irradiance=1 temperature=25 %cutin=20 %cutout=20 effcurve=MyEff P-TCurve=MyPvsT Daily=IRRAD_DIA TDaily=TEMP_DIA
New PVSystem.GD_c25699421d9630e76c7c925f54af8e01ec8219d81690fc25f8f255f56e886ef7_1 phases=1 bus1=node_418156278.1.4 conn=wye kv=0.1270 pf=1 pmpp=0.40 kva=0.40 irradiance=1 temperature=25 %cutin=20 %cutout=20 effcurve=MyEff P-TCurve=MyPvsT Daily=IRRAD_DIA TDaily=TEMP_DIA
New PVSystem.GD_c25699421d9630e76c7c925f54af8e01ec8219d81690fc25f8f255f56e886ef7_2 phases=1 bus1=node_418156278.2.4 conn=wye kv=0.1270 pf=1 pmpp=0.40 kva=0.40 irradiance=1 temperature=25 %cutin=20 %cutout=20 effcurve=MyEff P-TCurve=MyPvsT Daily=IRRAD_DIA TDaily=TEMP_DIA
New PVSystem.GD_c25699421d9630e76c7c925f54af8e01ec8219d81690fc25f8f255f56e886ef7_3 phases=1 bus1=node_418156278.3.4 conn=wye kv=0.1270 pf=1 pmpp=0.40 kva=0.40 irradiance=1 temperature=25 %cutin=20 %cutout=20 effcurve=MyEff P-TCurve=MyPvsT Daily=IRRAD_DIA TDaily=TEMP_DIA
New PVSystem.GD_75513bb8cd3b8aaecbcdac841eccdc4bb25de73b44506be79d7c9d1e163b15a9_1 phases=1 bus1=node_418156278.1.4 conn=wye kv=0.1270 pf=1 pmpp=0.35 kva=0.35 irradiance=1 temperature=25 %cutin=20 %cutout=20 effcurve=MyEff P-TCurve=MyPvsT Daily=IRRAD_DIA TDaily=TEMP_DIA
New PVSystem.GD_75513bb8cd3b8aaecbcdac841eccdc4bb25de73b44506be79d7c9d1e163b15a9_2 phases=1 bus1=node_418156278.2.4 conn=wye kv=0.1270 pf=1 pmpp=0.35 kva=0.35 irradiance=1 temperature=25 %cutin=20 %cutout=20 effcurve=MyEff P-TCurve=MyPvsT Daily=IRRAD_DIA TDaily=TEMP_DIA
New PVSystem.GD_75513bb8cd3b8aaecbcdac841eccdc4bb25de73b44506be79d7c9d1e163b15a9_3 phases=1 bus1=node_418156278.3.4 conn=wye kv=0.1270 pf=1 pmpp=0.35 kva=0.35 irradiance=1 temperature=25 %cutin=20 %cutout=20 effcurve=MyEff P-TCurve=MyPvsT Daily=IRRAD_DIA TDaily=TEMP_DIA
New PVSystem.GD_54fe80968b1d3f80453f58c54b590eacaf6f5feaf7d4ebb64829f664e3117a5d_1 phases=1 bus1=node_423567308.1.4 conn=wye kv=0.1200 pf=1 pmpp=0.60 kva=0.60 irradiance=1 temperature=25 %cutin=20 %cutout=20 effcurve=MyEff P-TCurve=MyPvsT Daily=IRRAD_DIA TDaily=TEMP_DIA
New PVSystem.GD_54fe80968b1d3f80453f58c54b590eacaf6f5feaf7d4ebb64829f664e3117a5d_2 phases=1 bus1=node_423567308.2.4 conn=wye kv=0.1200 pf=1 pmpp=0.60 kva=0.60 irradiance=1 temperature=25 %cutin=20 %cutout=20 effcurve=MyEff P-TCurve=MyPvsT Daily=IRRAD_DIA TDaily=TEMP_DIA
New PVSystem.GD_a308b07f5d77c9ac9ef3e02b0f4e86f40248275aab00de7c49dfd769e0afd573_1 phases=1 bus1=node_418163608.1.4 conn=wye kv=0.1270 pf=1 pmpp=0.60 kva=0.60 irradiance=1 temperature=25 %cutin=20 %cutout=20 effcurve=MyEff P-TCurve=MyPvsT Daily=IRRAD_DIA TDaily=TEMP_DIA
New PVSystem.GD_a308b07f5d77c9ac9ef3e02b0f4e86f40248275aab00de7c49dfd769e0afd573_2 phases=1 bus1=node_418163608.2.4 conn=wye kv=0.1270 pf=1 pmpp=0.60 kva=0.60 irradiance=1 temperature=25 %cutin=20 %cutout=20 effcurve=MyEff P-TCurve=MyPvsT Daily=IRRAD_DIA TDaily=TEMP_DIA
New PVSystem.GD_a308b07f5d77c9ac9ef3e02b0f4e86f40248275aab00de7c49dfd769e0afd573_3 phases=1 bus1=node_418163608.3.4 conn=wye kv=0.1270 pf=1 pmpp=0.60 kva=0.60 irradiance=1 temperature=25 %cutin=20 %cutout=20 effcurve=MyEff P-TCurve=MyPvsT Daily=IRRAD_DIA TDaily=TEMP_DIA
New PVSystem.GD_8c232b65157ccee40a6f1c3c97b8e73bb42faafd564a077b61bad28ea99416d5_1 phases=1 bus1=node_418148360.1.4 conn=wye kv=0.1200 pf=1 pmpp=2.42 kva=2.42 irradiance=1 temperature=25 %cutin=20 %cutout=20 effcurve=MyEff P-TCurve=MyPvsT Daily=IRRAD_DIA TDaily=TEMP_DIA
New PVSystem.GD_8c232b65157ccee40a6f1c3c97b8e73bb42faafd564a077b61bad28ea99416d5_2 phases=1 bus1=node_418148360.2.4 conn=wye kv=0.1200 pf=1 pmpp=2.42 kva=2.42 irradiance=1 temperature=25 %cutin=20 %cutout=20 effcurve=MyEff P-TCurve=MyPvsT Daily=IRRAD_DIA TDaily=TEMP_DIA
New PVSystem.GD_2904800344c6047697769bba5253419d8b7617152427187bf8591b2f07b1015e_1 phases=1 bus1=node_418165285.1.4 conn=wye kv=0.1270 pf=1 pmpp=1.29 kva=1.29 irradiance=1 temperature=25 %cutin=20 %cutout=20 effcurve=MyEff P-TCurve=MyPvsT Daily=IRRAD_DIA TDaily=TEMP_DIA
New PVSystem.GD_2904800344c6047697769bba5253419d8b7617152427187bf8591b2f07b1015e_2 phases=1 bus1=node_418165285.2.4 conn=wye kv=0.1270 pf=1 pmpp=1.29 kva=1.29 irradiance=1 temperature=25 %cutin=20 %cutout=20 effcurve=MyEff P-TCurve=MyPvsT Daily=IRRAD_DIA TDaily=TEMP_DIA
New PVSystem.GD_2904800344c6047697769bba5253419d8b7617152427187bf8591b2f07b1015e_3 phases=1 bus1=node_418165285.3.4 conn=wye kv=0.1270 pf=1 pmpp=1.29 kva=1.29 irradiance=1 temperature=25 %cutin=20 %cutout=20 effcurve=MyEff P-TCurve=MyPvsT Daily=IRRAD_DIA TDaily=TEMP_DIA
New PVSystem.GD_c53b491e8c14fb66931f898f4c6edc60afb360315f9ecb71fa3f48eb3f5ba456_1 phases=1 bus1=node_419117011.1.4 conn=wye kv=0.1270 pf=1 pmpp=18.56 kva=18.56 irradiance=1 temperature=25 %cutin=20 %cutout=20 effcurve=MyEff P-TCurve=MyPvsT Daily=IRRAD_DIA TDaily=TEMP_DIA
New PVSystem.GD_c53b491e8c14fb66931f898f4c6edc60afb360315f9ecb71fa3f48eb3f5ba456_2 phases=1 bus1=node_419117011.2.4 conn=wye kv=0.1270 pf=1 pmpp=18.56 kva=18.56 irradiance=1 temperature=25 %cutin=20 %cutout=20 effcurve=MyEff P-TCurve=MyPvsT Daily=IRRAD_DIA TDaily=TEMP_DIA
New PVSystem.GD_c53b491e8c14fb66931f898f4c6edc60afb360315f9ecb71fa3f48eb3f5ba456_3 phases=1 bus1=node_419117011.3.4 conn=wye kv=0.1270 pf=1 pmpp=18.56 kva=18.56 irradiance=1 temperature=25 %cutin=20 %cutout=20 effcurve=MyEff P-TCurve=MyPvsT Daily=IRRAD_DIA TDaily=TEMP_DIA
New PVSystem.GD_1aea6d0350b29c0891d48220472b5607d5f43bd3c1e988c28781f1b8d3895785_1 phases=1 bus1=node_2491387968.1.4 conn=wye kv=0.1270 pf=1 pmpp=18.51 kva=18.51 irradiance=1 temperature=25 %cutin=20 %cutout=20 effcurve=MyEff P-TCurve=MyPvsT Daily=IRRAD_DIA TDaily=TEMP_DIA
New PVSystem.GD_1aea6d0350b29c0891d48220472b5607d5f43bd3c1e988c28781f1b8d3895785_2 phases=1 bus1=node_2491387968.2.4 conn=wye kv=0.1270 pf=1 pmpp=18.51 kva=18.51 irradiance=1 temperature=25 %cutin=20 %cutout=20 effcurve=MyEff P-TCurve=MyPvsT Daily=IRRAD_DIA TDaily=TEMP_DIA
New PVSystem.GD_1aea6d0350b29c0891d48220472b5607d5f43bd3c1e988c28781f1b8d3895785_3 phases=1 bus1=node_2491387968.3.4 conn=wye kv=0.1270 pf=1 pmpp=18.51 kva=18.51 irradiance=1 temperature=25 %cutin=20 %cutout=20 effcurve=MyEff P-TCurve=MyPvsT Daily=IRRAD_DIA TDaily=TEMP_DIA
New PVSystem.GD_1026994f9b79034647d1a027a89c6ece934810355e388a3f46c68e70f545b1c5_1 phases=1 bus1=node_418147136.1.4 conn=wye kv=0.1270 pf=1 pmpp=21.71 kva=21.71 irradiance=1 temperature=25 %cutin=20 %cutout=20 effcurve=MyEff P-TCurve=MyPvsT Daily=IRRAD_DIA TDaily=TEMP_DIA
New PVSystem.GD_1026994f9b79034647d1a027a89c6ece934810355e388a3f46c68e70f545b1c5_2 phases=1 bus1=node_418147136.2.4 conn=wye kv=0.1270 pf=1 pmpp=21.71 kva=21.71 irradiance=1 temperature=25 %cutin=20 %cutout=20 effcurve=MyEff P-TCurve=MyPvsT Daily=IRRAD_DIA TDaily=TEMP_DIA
New PVSystem.GD_1026994f9b79034647d1a027a89c6ece934810355e388a3f46c68e70f545b1c5_3 phases=1 bus1=node_418147136.3.4 conn=wye kv=0.1270 pf=1 pmpp=21.71 kva=21.71 irradiance=1 temperature=25 %cutin=20 %cutout=20 effcurve=MyEff P-TCurve=MyPvsT Daily=IRRAD_DIA TDaily=TEMP_DIA
New PVSystem.GD_c32a05742afc203a4942f4e3d9b169145c43e7779fe36363f903a25a785ccb15_1 phases=1 bus1=node_419616627.1.4 conn=wye kv=0.1200 pf=1 pmpp=1.70 kva=1.70 irradiance=1 temperature=25 %cutin=20 %cutout=20 effcurve=MyEff P-TCurve=MyPvsT Daily=IRRAD_DIA TDaily=TEMP_DIA
New PVSystem.GD_c32a05742afc203a4942f4e3d9b169145c43e7779fe36363f903a25a785ccb15_2 phases=1 bus1=node_419616627.2.4 conn=wye kv=0.1200 pf=1 pmpp=1.70 kva=1.70 irradiance=1 temperature=25 %cutin=20 %cutout=20 effcurve=MyEff P-TCurve=MyPvsT Daily=IRRAD_DIA TDaily=TEMP_DIA
New PVSystem.GD_9d3ebe66b138a14bff8489aa5e5f8969c12275039f8c7b95a577122b68fbd62a_1 phases=1 bus1=node_418165312.1.4 conn=wye kv=0.1200 pf=1 pmpp=2.09 kva=2.09 irradiance=1 temperature=25 %cutin=20 %cutout=20 effcurve=MyEff P-TCurve=MyPvsT Daily=IRRAD_DIA TDaily=TEMP_DIA
New PVSystem.GD_9d3ebe66b138a14bff8489aa5e5f8969c12275039f8c7b95a577122b68fbd62a_2 phases=1 bus1=node_418165312.2.4 conn=wye kv=0.1200 pf=1 pmpp=2.09 kva=2.09 irradiance=1 temperature=25 %cutin=20 %cutout=20 effcurve=MyEff P-TCurve=MyPvsT Daily=IRRAD_DIA TDaily=TEMP_DIA
New PVSystem.GD_9d2f6989d41f1d986428543b4af772f7855ce8ee7085e974879d3e0f00b1b7aa_1 phases=1 bus1=node_418163623.1.4 conn=wye kv=0.1270 pf=1 pmpp=0.88 kva=0.88 irradiance=1 temperature=25 %cutin=20 %cutout=20 effcurve=MyEff P-TCurve=MyPvsT Daily=IRRAD_DIA TDaily=TEMP_DIA
New PVSystem.GD_9d2f6989d41f1d986428543b4af772f7855ce8ee7085e974879d3e0f00b1b7aa_2 phases=1 bus1=node_418163623.2.4 conn=wye kv=0.1270 pf=1 pmpp=0.88 kva=0.88 irradiance=1 temperature=25 %cutin=20 %cutout=20 effcurve=MyEff P-TCurve=MyPvsT Daily=IRRAD_DIA TDaily=TEMP_DIA
New PVSystem.GD_9d2f6989d41f1d986428543b4af772f7855ce8ee7085e974879d3e0f00b1b7aa_3 phases=1 bus1=node_418163623.3.4 conn=wye kv=0.1270 pf=1 pmpp=0.88 kva=0.88 irradiance=1 temperature=25 %cutin=20 %cutout=20 effcurve=MyEff P-TCurve=MyPvsT Daily=IRRAD_DIA TDaily=TEMP_DIA
New PVSystem.GD_5fd7ad316e07e030b169eafc8681cbc63daa6e3508fe02b38a772a007bc970f5_1 phases=1 bus1=node_463925088.1.4 conn=wye kv=0.1270 pf=1 pmpp=0.43 kva=0.43 irradiance=1 temperature=25 %cutin=20 %cutout=20 effcurve=MyEff P-TCurve=MyPvsT Daily=IRRAD_DIA TDaily=TEMP_DIA
New PVSystem.GD_5fd7ad316e07e030b169eafc8681cbc63daa6e3508fe02b38a772a007bc970f5_2 phases=1 bus1=node_463925088.2.4 conn=wye kv=0.1270 pf=1 pmpp=0.43 kva=0.43 irradiance=1 temperature=25 %cutin=20 %cutout=20 effcurve=MyEff P-TCurve=MyPvsT Daily=IRRAD_DIA TDaily=TEMP_DIA
New PVSystem.GD_5fd7ad316e07e030b169eafc8681cbc63daa6e3508fe02b38a772a007bc970f5_3 phases=1 bus1=node_463925088.3.4 conn=wye kv=0.1270 pf=1 pmpp=0.43 kva=0.43 irradiance=1 temperature=25 %cutin=20 %cutout=20 effcurve=MyEff P-TCurve=MyPvsT Daily=IRRAD_DIA TDaily=TEMP_DIA
New PVSystem.GD_320f83ae5744fd11f28b4fe4503eeeb0fd1dc4e481a51a694b6fa5a6b8c69001_1 phases=1 bus1=node_418884650.1.4 conn=wye kv=0.1200 pf=1 pmpp=1.19 kva=1.19 irradiance=1 temperature=25 %cutin=20 %cutout=20 effcurve=MyEff P-TCurve=MyPvsT Daily=IRRAD_DIA TDaily=TEMP_DIA
New PVSystem.GD_320f83ae5744fd11f28b4fe4503eeeb0fd1dc4e481a51a694b6fa5a6b8c69001_2 phases=1 bus1=node_418884650.2.4 conn=wye kv=0.1200 pf=1 pmpp=1.19 kva=1.19 irradiance=1 temperature=25 %cutin=20 %cutout=20 effcurve=MyEff P-TCurve=MyPvsT Daily=IRRAD_DIA TDaily=TEMP_DIA
New PVSystem.GD_a5f78284840bab4971f97ada0cc481b44354888724138ba5158519b76e5c6cc6_1 phases=1 bus1=node_412126940.1.4 conn=wye kv=0.1200 pf=1 pmpp=5.88 kva=5.88 irradiance=1 temperature=25 %cutin=20 %cutout=20 effcurve=MyEff P-TCurve=MyPvsT Daily=IRRAD_DIA TDaily=TEMP_DIA
New PVSystem.GD_18b1975aa3763855c8af20bccfadb5fa987b1de3377c4478a127f8dc94777e27_1 phases=1 bus1=node_419723370.1.4 conn=wye kv=0.1200 pf=1 pmpp=2.17 kva=2.17 irradiance=1 temperature=25 %cutin=20 %cutout=20 effcurve=MyEff P-TCurve=MyPvsT Daily=IRRAD_DIA TDaily=TEMP_DIA
